LTspice 24.1.10 for Windows
Circuit: C:\Users\guill\OneDrive\Desktop\simulations\full_wave_rectifier.net
Start Time: Wed Oct 15 15:38:14 2025
solver = Normal
Maximum thread count: 16
tnom = 27
temp = 27
method = trap
.OP point found by inspection.
Total elapsed time: 0.093 seconds.

Files loaded:
C:\Users\guill\OneDrive\Desktop\simulations\full_wave_rectifier.net
C:\Users\guill\AppData\Local\LTspice\lib\cmp\standard.dio

vmax: MAX(V(Vout))=23.9684772491 FROM 0.1 TO 0.2
vmin: MIN(V(Vout))=23.2521781921 FROM 0.1 TO 0.2
ripple: Vmax-Vmin=0.716299057007
vdc: AVG(V(Vout))=23.6178009298 FROM 0.1 TO 0.2
